Circuit: * C:\Users\Sujit\Documents\UNIVERSITY\EEE\3rd year project\git\3rd-year-project\OpenLoopDesign\Simulations\PylePLPW6D\Datasheet\MountedPyle\mounted_pyle.asc

Direct Newton iteration for .op point succeeded.

Date: Tue Dec 10 23:12:43 2019
Total elapsed time: 0.299 seconds.

tnom = 27
temp = 27
method = trap
totiter = 26
traniter = 0
tranpoints = 0
accept = 0
rejected = 0
matrix size = 37
fillins = 58
solver = Normal
Matrix Compiler1:     279 opcodes
Matrix Compiler2: 3.93 KB object code size
