Circuit: * C:\Users\Sujit\Documents\UNIVERSITY\EEE\3rd year project\git\3rd-year-project\Simulations\Linkwitz THOR\Linkwitz THOR basic.asc


Date: Tue Oct 29 18:43:03 2019
Total elapsed time: 0.065 seconds.

tnom = 27
temp = 27
method = trap
totiter = 0
traniter = 0
tranpoints = 0
accept = 0
rejected = 0
matrix size = 4
fillins = 1
solver = Normal

