Circuit: * C:\Users\Sujit\Documents\UNIVERSITY\EEE\3rd year project\git\3rd-year-project\Simulations\Linkwitz THOR\Linkwitz THOR with Transform.asc

Ignoring empty pin current: Ix(u1:1)
Ignoring empty pin current: Ix(u1:2)
Ignoring empty pin current: Ix(u2:1)
Ignoring empty pin current: Ix(u2:2)

Date: Tue Oct 29 18:42:47 2019
Total elapsed time: 0.162 seconds.

tnom = 27
temp = 27
method = trap
totiter = 0
traniter = 0
tranpoints = 0
accept = 0
rejected = 0
matrix size = 12
fillins = 0
solver = Normal

